@<TRIPOS>MOLECULE
*****
 26 25 0 0 0
SMALL
GASTEIGER

@<TRIPOS>ATOM
      1 N           6.7540    3.7970    6.7680 N.4     0  UNK0        0.2185
      2 C           5.7060    4.7910    6.3740 C.3     0  UNK0       -0.0354
      3 C           4.6440    4.9890    7.4380 C.3     0  UNK0       -0.0126
      4 C           3.6860    3.8170    7.6280 C.3     0  UNK0       -0.0481
      5 H           7.3090    4.1570    7.5710 H       0  UNK0        0.1994
      6 H           5.2800    4.4430    5.4240 H       0  UNK0        0.0813
      7 H           1.0780    2.7550    7.7930 H       0  UNK0        0.0317
      8 H           7.3900    3.6270    5.9650 H       0  UNK0        0.1994
      9 H           4.0720    5.8820    7.1430 H       0  UNK0        0.0317
     10 H           3.2740    3.5290    6.6480 H       0  UNK0        0.0267
     11 H           4.2220    2.9390    8.0240 H       0  UNK0        0.0267
     12 H           6.2420    5.7290    6.1870 H       0  UNK0        0.0813
     13 H           6.3750    2.8590    7.0390 H       0  UNK0        0.1994
     14 H           5.1360    5.2440    8.3880 H       0  UNK0        0.0317
     15 C           2.5340    4.1650    8.5680 C.3     0  UNK0       -0.0481
     16 C           1.5730    2.9940    8.7450 C.3     0  UNK0       -0.0126
     17 H           2.0020    5.0490    8.1770 H       0  UNK0        0.0267
     18 H           2.9450    4.4450    9.5520 H       0  UNK0        0.0267
     19 C           0.5140    3.1810    9.8150 C.3     0  UNK0       -0.0354
     20 H           2.1420    2.0950    9.0270 H       0  UNK0        0.0317
     21 H          -0.0230    2.2420    9.9910 H       0  UNK0        0.0813
     22 N          -0.5310    4.1840    9.4400 N.4     0  UNK0        0.2185
     23 H           0.9470    3.5140   10.7670 H       0  UNK0        0.0813
     24 H          -0.1500    5.1210    9.1650 H       0  UNK0        0.1994
     25 H          -1.1000    3.8320    8.6440 H       0  UNK0        0.1994
     26 H          -1.1540    4.3560   10.2540 H       0  UNK0        0.1994
@<TRIPOS>BOND
     1     1     2    1
     2     1    13    1
     3     1     8    1
     4     1     5    1
     5     2     6    1
     6     2     3    1
     7     2    12    1
     8     3     4    1
     9     3     9    1
    10     3    14    1
    11     4    10    1
    12     4    11    1
    13     4    15    1
    14     7    16    1
    15    15    16    1
    16    15    17    1
    17    15    18    1
    18    16    19    1
    19    16    20    1
    20    19    21    1
    21    19    22    1
    22    19    23    1
    23    22    25    1
    24    22    24    1
    25    22    26    1
