@<TRIPOS>MOLECULE
phenyl_m2
30   30    1
SMALL
USER_CHARGES


@<TRIPOS>ATOM
      1 C1         -0.1419    0.0088    0.7851 C.ar      1 UNK         0.0000 
      2 C2         -0.7708   -1.1976    0.4648 C.ar      1 UNK         0.0000 
      3 C3         -2.1236   -1.2260    0.1364 C.ar      1 UNK         0.0000 
      4 C4         -2.8766   -0.0485    0.1218 C.ar      1 UNK         0.0000 
      5 C5         -2.2474    1.1581    0.4415 C.ar      1 UNK         0.0000 
      6 C6         -0.8947    1.1863    0.7698 C.ar      1 UNK         0.0000 
      7 C7         -4.3461   -0.0758   -0.2591 C.3       1 UNK         0.0000 
      8 C8          1.3272    0.0363    1.1672 C.3       1 UNK         0.0000 
      9 C9          1.4881   -0.1515    2.6773 C.3       1 UNK         0.0000 
     10 C10        -4.5095    0.1197   -1.7680 C.3       1 UNK         0.0000 
     11 N11         2.9653   -0.1259    3.0785 N.4       1 UNK         0.0000 
     12 N12        -5.9877    0.0949   -2.1664 N.4       1 UNK         0.0000 
     13 H13        -0.2060   -2.1240    0.4608 H         1 UNK         0.0000 
     14 H14        -2.5907   -2.1762   -0.1003 H         1 UNK         0.0000 
     15 H15        -2.8122    2.0845    0.4455 H         1 UNK         0.0000 
     16 H16        -0.4275    2.1366    1.0060 H         1 UNK         0.0000 
     17 H17        -4.7880   -1.0318    0.0405 H         1 UNK         0.0000 
     18 H18        -4.8816    0.7148    0.2769 H         1 UNK         0.0000 
     19 H19         1.8625   -0.7576    0.6361 H         1 UNK         0.0000 
     20 H20         1.7706    0.9902    0.8634 H         1 UNK         0.0000 
     21 H21         1.0049    0.6455    3.2430 H         1 UNK         0.0000 
     22 H22         1.0974   -1.1119    3.0146 H         1 UNK         0.0000 
     23 H23        -4.1203    1.0821   -2.1010 H         1 UNK         0.0000 
     24 H24        -4.0268   -0.6740   -2.3387 H         1 UNK         0.0000 
     25 H25         3.0853   -0.2508    4.0893 H         1 UNK         0.0000 
     26 H26         3.4922   -0.8714    2.6113 H         1 UNK         0.0000 
     27 H27         3.4062    0.7641    2.8230 H         1 UNK         0.0000 
     28 H28        -6.1101    0.2257   -3.1761 H         1 UNK         0.0000 
     29 H29        -6.4270   -0.7971   -1.9155 H         1 UNK         0.0000 
     30 H30        -6.5142    0.8369   -1.6932 H         1 UNK         0.0000 
@<TRIPOS>BOND
     1    1    2 ar   
     2    1    6 ar   
     3    1    8 1    
     4    2    3 ar   
     5    2   13 1    
     6    3    4 ar   
     7    3   14 1    
     8    4    5 ar   
     9    4    7 1    
    10    5    6 ar   
    11    5   15 1    
    12    6   16 1    
    13    7   10 1    
    14    7   17 1    
    15    7   18 1    
    16    8    9 1    
    17    8   19 1    
    18    8   20 1    
    19    9   11 1    
    20    9   21 1    
    21    9   22 1    
    22   10   12 1    
    23   10   23 1    
    24   10   24 1    
    25   11   25 1    
    26   11   26 1    
    27   11   27 1    
    28   12   28 1    
    29   12   29 1    
    30   12   30 1    
@<TRIPOS>SUBSTRUCTURE
     1 UNK         1 GROUP             0       ****    0 ROOT    
